////////////////////////////////////////////////////////////
// gui.eel - The Eelium SDL 2D GUI Toolkit
// Copyright 2005-2006, 2009-2011, 2014, 2016 David Olofson
////////////////////////////////////////////////////////////

module eelium.gui;

import math;
import SDL as SDL;
import eelium.recttools as RT;
import eelium.line as line;
export import eelium.guidefs;
import eelium.text as text;
import system as sys;


static system_unicode = SDL.EnableUNICODE(true);

function round(v)
{
	return floor(v + .5);
}

function round2(v, m)
{
	return floor(v / m + (m / 2)) * m;
}


export procedure Invalidate[rect, zlevel, refroot];

// Rendering target (SDL.Surface)
static target = nil;

export function GetTarget
{
	return target;
}

export procedure SetTarget(tg)
{
	if tg == target
		return;
	target = tg;
	Invalidate();
}


// Root widgets/windows
static roots = [];

// Table of dirty widgets, all roots. (table is used only to filter out
// multiple invalidations between refreshes. Values are ignored.)
static dirtywidgets = {};



///////////////////////////////////////////////////////////////////////////////
///////////////////////////////////////////////////////////////////////////////
//// Font management
///////////////////////////////////////////////////////////////////////////////
///////////////////////////////////////////////////////////////////////////////

export function LoadFont(name)
{
	try
		return text.Open(sys.MODPATH + "/eelium/fonts/" + name);
	return text.Open(name);
}



///////////////////////////////////////////////////////////////////////////////
///////////////////////////////////////////////////////////////////////////////
//// Theme management
///////////////////////////////////////////////////////////////////////////////
///////////////////////////////////////////////////////////////////////////////

// Default theme constructor
//static default_theme_cons;
//static default_theme_cons = load("default_theme").Create;

// User theme for new root widgets with no theme specified, as passed to Open().
static user_theme;

// Create a default theme instance
export function DefaultTheme
{
//	return default_theme_cons();
	return load("eelium/default_theme").Create();
}



///////////////////////////////////////////////////////////////////////////////
///////////////////////////////////////////////////////////////////////////////
//// Message passing
///////////////////////////////////////////////////////////////////////////////
///////////////////////////////////////////////////////////////////////////////

// Table of <type, subscribers>, where 'subscribers' is an array
// of arrays where [0] = 'func' and [1] = 'data', as passed to
// Subscribe().
static subscribers = {};


// Send a message to every subscriber of 'type'. 'args' can be of
// any type, and will be passed to the subscribers as their second
// argument. Not specifying 'args' is equivalent to passing nil.
export procedure Send(type)[args]
{
	// Any subscribers to this message type?
	local ss = nil;
	try
		ss = subscribers[type];
	except
		return;
	if specified args
		local a = args;
	else
		a = nil;
	for local i = 0, sizeof ss - 1
		ss[i][0](ss[i][1], a);
}


// Subscribe to messages of 'type'. Messages will be passed as
// calls to 'func' with 'data' as the first argument, and nil or
// arguments as passed via 'args' of Send() as the second argument.
export procedure Subscribe(type, func, data)
{
	try
		local dummy = subscribers[type];
	except
		subscribers[type] = [];
	subscribers[type].+ [func, data];
}


// Unsubscribe 'func' from any message types it may be subscribed to,
// effectively detaching 'func' from the message passing system.
// Not specifying 'func' will close the message passing system,
// unsubscribing all subscribers to all message types.
export procedure Unsubscribe[func]
{
	if not specified func
	{
		delete(subscribers);
		return;
	}
	for local t = 0, sizeof subscribers - 1
	{
		local st = index(subscribers, t);
		for local i = sizeof st - 1, 0, -1
			if st[i][0] == func
				delete(st[i]);
	}
}



///////////////////////////////////////////////////////////////////////////////
///////////////////////////////////////////////////////////////////////////////
//// Capture, focus and modal handling
///////////////////////////////////////////////////////////////////////////////
///////////////////////////////////////////////////////////////////////////////

static captured;	// Widget holding capture, or nil
static focused;		// Widget holding focus, or nil
static modal;		// Modal root widget, or nil


export procedure SetModal(widget)
{
	if widget
	{
		widget.capture_save = captured;
		widget.focused_save = focused;
	}
	else if modal
	{
		captured = modal.capture_save;
		focused = modal.focused_save;
		delete(modal, "capture_save");
		delete(modal, "focused_save");
	}
	modal = widget;
}


static grabs = 0;

procedure grab_input(onoff, hide)
{
	static appgrabinput;	// Application state of GrabInput
	static appshowcursor;	// ...and ShowCursor
	if onoff
		grabs += 1;
	else
		grabs -= 1;
	if grabs == 1
	{
		appgrabinput = SDL.GrabInput(SDL.QUERY);
		SDL.GrabInput(SDL.ENABLE);
		if hide
		{
			appshowcursor = SDL.ShowCursor(SDL.QUERY);
			SDL.ShowCursor(SDL.DISABLE);
		}
		else
			appshowcursor = nil;
	}
	else if grabs == 0
	{
		SDL.GrabInput(appgrabinput);
		if appshowcursor != nil
			SDL.ShowCursor(appshowcursor);
	}
}


export procedure SetCapture(widget)[hide]
{
	local _hide = false;
	if specified hide
		_hide = hide;
	if widget and not captured
		grab_input(true, _hide);
	else if captured and not widget
		grab_input(false, false);
	captured (=) widget;
}


export procedure SetFocus(widget)
{
	if focused
	{
		focused:OnFocus(false);
		focused:Invalidate();
	}
	focused (=) widget;
	if focused
	{
		focused:OnFocus(true);
		focused:Invalidate();
	}
}


export function GetModal	{ return modal; }
export function GetCapture	{ return captured; }
export function GetFocus	{ return focused; }


function dig_down(w)
{
	local leaf = w;
	while sizeof leaf.widgets
		leaf = leaf.widgets[0];
	return leaf;
}

function find_next_focusable(w)
{
	local parent = w.parent;
	local i = 0;
	for i = 0, sizeof parent.widgets - 1
		if parent.widgets[i] == w
			break;
	i += 1;
	while i < sizeof parent.widgets
	{
/* FIXME: We need a 'canfocus' flag here. */
		if parent.widgets[i].enabled
			break;
		i += 1;
	}
	if i < sizeof parent.widgets
		return dig_down(parent.widgets[i]);
	else
	{
/* FIXME: Again, we need a 'canfocus' flag. Can't reliably dig back down otherwise. */
		if parent.parent
			return dig_down(find_next_focusable(parent));
		else
			return dig_down(parent.widgets[0]);
	}
}


// Handles TAB navigation and the like.
// If you have a custom OnKeyDown handler, call this
// function to implement standard keyboard navigation,
// if desired!
/*
export procedure NavigationKeyDown(self, ev)
{
	switch ev.sym
	  case SDL.KTAB
		SetFocus(find_next_focusable(self));
}
*/

function handle_event(cb, ev)
{
	// Non-positional event. Can only be dispatched to a
	// focused widget, or a widget holding the capture.
	// If neither is present, the event is dropped.
	//
	// (Note that the modal logic is ignored here, as
	// capture and focus is automatically restricted to
	// any modal widget.)
/*	local hit = nil;
	if captured
	{
		hit = captured;
		captured[cb](captured, ev);
	}
	else if focused
		if not focused.enabled
			SetFocus(nil);
		else
		{
			hit = focused;
			focused[cb](focused, ev);
		}
	return hit;
*/
	local hit = nil;
	if captured
	{
		if captured[cb](captured, ev)
			hit = captured;
	}
	else if focused
	{
		if focused[cb](focused, ev)
			hit = focused;
	}
	if not hit
		if cb == "OnKeyDown"
			if ev.sym == SDL.KTAB
			{
				if focused
//					focused:FocusNext();
					SetFocus(find_next_focusable(focused));
				else if modal
					SetFocus(modal);
				else
					SetFocus(roots[0]);
			}
	return hit;
}


function handle_pos_event(cb, ev)
{
	// Positional event! These can be dispatched (based on
	// position)) even if there is no capture, and they
	// disregard focus. If there is a modal widget, events
	// are dispatched to that widget only.
	local hit = nil;
	if captured
	{
		hit = captured;
		captured[cb](captured, ev);
	}
	else if modal
		hit = modal:Dispatch(cb, ev, ev.(x, y));
	else if sizeof roots
	{
		local x, local y = ev.(x, y);
		for local i = sizeof roots - 1, 0, -1
		{
			hit = roots[i]:Dispatch(cb, ev, x, y);
			if hit
				break;
		}
	}
	return hit;
}


// Dispatch an SDL event to Eelium GUI, and return the widget that received
// the event, if any.
//	Note that Elium GUI assumes that event coordinates (such as absolute
//	mouse coordinates) match the coordinate system of the target
//	surface(s). Thus, if Eelium GUI is rendering into off-screen surfaces
//	that are scaled and/or offset before they end up on the screen,
//	event coordinates will have to be adjusted accordingly before
//	passed to this call.
export function Dispatch(ev)
{
	// Determine what general kind of event we're dealing
	// with, and decide which callback to use.
	switch ev.type
	  case SDL.KEYDOWN
		return handle_event("OnKeyDown", ev);
	  case SDL.KEYUP
		return handle_event("OnKeyUp", ev);
	  case SDL.MOUSEBUTTONDOWN
		return handle_pos_event("OnDown", ev);
	  case SDL.MOUSEBUTTONUP
		return handle_pos_event("OnUp", ev);
	  case SDL.MOUSEMOTION
		return handle_pos_event("OnMove", ev);
	return nil;
}



///////////////////////////////////////////////////////////////////////////////
///////////////////////////////////////////////////////////////////////////////
//// Windowing, regions and refresh handling
///////////////////////////////////////////////////////////////////////////////
///////////////////////////////////////////////////////////////////////////////
// To deal efficiently with overlapping "windows" (root widgets, as we call
// them), we use regions constructed from arrays of rects. Each root widget has
// a region describing the currently visible/drawable screen area of that
// widget, allowing it to refresh without overdrawing overlapping root widgets.
//    To avoid relying on complex region clipping support in the underlying
// rendering API, we simply refresh one rect of a region at a time. This means
// that in some situations, a widget may be called upon several times in one
// refresh, to redraw different parts of it's visible area. (It may be a good
// idea for a widget with heavy rendering to look at the cliprect...)

procedure recursive_redraw(w, undirty)[cr]
{
	// If desired, remove ourselves from the dirty table
	if undirty
		try delete(dirtywidgets, w);

	// Are we at all visible...?
	if not w.visible
		return;

	// Apply specified clip rect, if any
	if specified cr
		local clip = RT.Intersect(cr, w.rect);
	else
		clip = w.rect;
	if not clip
		return;		// Everything clipped - nothing to draw!

	// Redraw, clipping to the root's region
	local rr = w.root.region;
	for local j = 0, sizeof rr - 1
	{
		local rclip = RT.Intersect(rr[j], clip);
		if rclip
		{
			SDL.SetClipRect(target, rclip);
			w:Redraw();
		}
	}

	// Recursively redraw children!
// FIXME: This no longer works due to the complex regions!
//	if w.border
//		clip = RT.Shrink(clip, w.border);
	local wa = w.widgets;
	if sizeof wa
		for local i = 0, sizeof wa - 1
			recursive_redraw(wa[i], undirty, clip);
}


// Invalidate the specified area of any affected root widgets at or below the
// specified Z level.
//    If 'zlevel' is not specified, all root widgets are considered. If
// 'refroot' is specified, 'zlevel' is interpreted as an offset from the Z level
// of root widget 'refroot'.
//    If 'rect' is nil or not specified, the whole screen area is considered.
export procedure Invalidate[rect, zlevel, refroot]
{
	if not sizeof roots
		return;
	if specified rect
		local r = rect;
	else
		r = nil;
	if specified zlevel
		local zl = zlevel;
	else
		zl = sizeof roots - 1;
	if specified refroot
	{
		local zl0 = nil;
		for local i = 0, sizeof roots[i] - 1
			if roots[i] == refroot
			{
				zl0 = i;
				break;
			}
		if zl0 == nil
			throw "The 'refroot' passed to Invalidate() was not "
					"found in the root widget array!";
		zl += zl0;
	}
	if zl < 0
		return;
	zl |<= sizeof roots - 1;
	if r
		for local i = 0, zl
			roots[i].dirtyrects.+ r;
	else
		for local i = 0, zl
			roots[i]:Invalidate();
}


// Realign any widgets that need it
procedure realign_invalidated
{
	for local i = 0, sizeof dirtywidgets - 1
	{
		local w = key(dirtywidgets, i);
		if w.needs_realign
			w:DoRealign();
	}
}


// Initialize any new widgets with a first-time Init() method
// Return true if any initializer was called
function initialize_new
{
	local res = false;
	for local i = 0, sizeof dirtywidgets - 1
		try
		{
			local w = key(dirtywidgets, i);
			w:Init();
			delete(w, "Init");
			res = true;
		}
	return res;
}

/* TODO:
	* Save old regions and calculate the diff for minimal updates!
		* Do we need Close() to grab the region of the closed root
		  widget...? No! It should be sufficient to conclude that some
		  areas that were occluded before aren't after the rethink.
*/
procedure rethink_regions
{
	if not sizeof roots
		return;

	realign_invalidated();

	// Start out with one rect for each root widget
	for local i = 0, sizeof roots - 1
	{
		local rt = roots[i];
		if not rt.visible
			continue;
		local rg = rt.region;
		delete(rg);
		rg.+ rt.rect;
	}

	if sizeof roots < 2
		return;		// No overlapping to deal with here...

	// Now cut the rect of each region away from all regions under it!
	for local i = 1, sizeof roots - 1
		if roots[i].visible
			for local j = 0, i - 1
			{
				if not roots[j].visible
					continue;
				local top = roots[i].region;
				local bot = roots[j].region;
				local newbot = [];
				for local r = 0, sizeof bot - 1
					RT.Subtract(bot[r], top[0], newbot);
				roots[j].region = newbot;
			}
}


// Refresh all dirty areas and invalidated widgets, storing rects describing
// the touched areas in 'dirtyrects'. Also handles realignments of widgets that
// are new, or have been moved or resized.
//
export procedure Refresh(dirtyrects)
{
	realign_invalidated();
	if initialize_new()
		realign_invalidated();

//local t0 = SDL.GetTicks();
	// Refresh any dirty areas resulting from moved or closed root widgets.
	// (These rects are normally the old/new diff from rethink_regions().)
	// NOTE:
	//	We tell recursive_redraw() to leave dirtywidgets alone here, as
	//	we're generally not redrawing entire widgets!
	for local i = 0, sizeof roots - 1
		if sizeof roots[i].dirtyrects
		{
			local dr = roots[i].dirtyrects;
			for local j = 0, sizeof dr - 1
			{
//print("Refreshing ", dr[j].x, ", ", dr[j].y, ", ", dr[j].w, "x", dr[j].h,
//		" of root widget ", i, "\n");
				recursive_redraw(roots[i], false, dr[j]);
				dirtyrects.+ dr[j];
			}
			delete(roots[i].dirtyrects);
		}

//FIXME: If widgets and their (grand)parents on some level are invalidated in
//FIXME: the same pass, they may be redrawn multiple times. (An invalidated
//FIXME: widget redraws all children recursively, as we have no low level
//FIXME: complex regions to handle anything else properly.)

	// Refresh any dirty widgets.
	// (These usually come from normal GUI operation.)
	while sizeof dirtywidgets
	{
		local w = key(dirtywidgets, 0);
//print("Refreshing widget ", w, "\n");
		recursive_redraw(w, true);
		dirtyrects.+ w.rect;
	}
//local t1 = SDL.GetTicks() - t0;
//if t1
//	print("Refresh(): ", t1, " ms, ", sizeof dirtyrects, " dirtyrects\n");
}



///////////////////////////////////////////////////////////////////////////////
///////////////////////////////////////////////////////////////////////////////
//// Alignment engine
///////////////////////////////////////////////////////////////////////////////
///////////////////////////////////////////////////////////////////////////////


// Leave child widgets alone! Logic coordinates are copied as is,
// meaning that (0, 0) is the top-left of the target surface
// regardless of the position of the parent widget.
// Parameters:
//	<none>
procedure align_none(self)
{
	local w = self.widgets;
	for local i = 0, sizeof self.widgets - 1
		w[i].rect.(x, y, w, h) = w[i].logicrect.(x, y, w, h);
}

// Make child position relative to self.rect.(x, y)
// Parameters:
//	xscroll (integer) [0]	Horizontal scroll offset
//	yscroll (integer) [0]	Vertical scroll offset
procedure align_relative(self)
{
	local w = self.widgets;
	local xo, local yo = self.(xscroll, yscroll)/* + self.rect.(x, y)*/;
	local xmin, local ymin = 1000000;
	local xmax, local ymax = -1000000;
	for local i = 0, sizeof self.widgets - 1
	{
		local lr = w[i].logicrect;
		w[i].rect.(x, y) = lr.(x, y) + (xo, yo);
		w[i].rect.(w, h) = lr.(w, h);
		xmin |<= lr.x;
		xmax >|= lr.x + lr.w;
		ymin |<= lr.y;
		ymax >|= lr.y + lr.h;
	}
	self.extents.(x, y, w, h) = xmin, ymin, xmax - xmin, ymax - ymin;
}

// Place widgets, full width, fixed height, in a vertical list. If the
// Parameters:
//	itemheight (integer) [16]	Height of each list item (pixels)
//	yscroll (integer) [0]		Vertical scroll offset
procedure align_list(self)
{
	local w = self.widgets;
	local yo = self.yscroll;
	local ymax = -1000000;
	local r = RT.Shrink(self.rect, self.border);
	local y = r.y;
	for local i = 0, sizeof self.widgets - 1
	{
		w[i].rect.(x, y) = r.x, y + yo;
		w[i].rect.(w, h) = r.w, self.itemheight;
		y += self.itemheight;
		ymax >|= y + yo;
	}
	self.ymax = ymax;
}

// Scale children according to the relation between the specified
// width and height and the size of self.rect.
// Parameters:
//	logicw (integer) [100]	Logic width of child widget space
//	logich (integer) [100]	Logic height of child widget space
procedure align_scale(self)
{
	local w = self.widgets;
	local sr = self.rect;
	local sx, local sy = self.(logicw, logich) / self.rect.(w, h);
	for local i = 0, sizeof self.widgets - 1
	{
		w[i].rect.(x, y) = w[i].logicrect.(x, y) * (sx, sy) + sr.(x, y);
		w[i].rect.(w, h) = w[i].logicrect.(w, h) * (sx, sy);
	}
}

// Place widgets in a grid
// Parameters:
//	cols (real) [2]			number of columns
//	rows (real) [2]			number of rows
//	colratio (vector_d) [<empty>]	col/col/... ratio
//	rowratio (vector_d) [<empty>]	row/row/... ratio
//	childsize (boolean) [false]	Calculate ratios from child rects
// TODO: Implement childsize for "2D" containers!
procedure align_grid(self)
{
	local clw, local clh = self.rect.(w, h) - (2 * self.border);

	// Calculate row and column distributions
	local rrs, local crs = vector [], vector [];
	local rrsum, local crsum = 0;

	for local i = 0, self.rows - 1
	{
		if sizeof self.rowratio > i
			rrs.+ self.rowratio[i];
		else
			rrs.+ 1;
		rrsum += rrs[i];
	}
	for local i = 0, self.rows - 1
		rrs[i] /= rrsum;
	if sizeof rrs > 1
		for local i = 1, sizeof rrs - 1
			rrs[i] += rrs[i - 1];

	for local i = 0, self.cols - 1
	{
		if sizeof self.colratio > i
			crs.+ self.colratio[i];
		else
			crs.+ 1;
		crsum += crs[i];
	}
	for local i = 0, self.cols - 1
		crs[i] /= crsum;
	if sizeof crs > 1
		for local i = 1, sizeof crs - 1
			crs[i] += crs[i - 1];

	if self.childsize and (self.rows > 1) and (self.cols > 1)
		print("Eelium GUI WARNING: Aligner \"grid\" does not yet implement "
				"'childsize' for 2D grids! "
				"Expect weird results!\n");

	// Realign children
	local clx, local cly = self.rect.(x, y) + self.border;
	local i = 0;
	local lasty = cly;
	for local row = 0, self.rows - 1
	rowloop:
	{
		if self.childsize and (i < sizeof self.widgets)
		{
			row += self.widgets[i].logicrect.h - 1 >| 0;
			row |<= sizeof rrs - 1;
		}
		local y = round(clh * rrs[row] + cly);
		local h = round(y) - round(lasty);
		local lastx = clx;
		for local col = 0, self.cols - 1
		{
			if i >= sizeof self.widgets
				break rowloop;
			local wi = self.widgets[i];
			i += 1;
			if not wi.visible
				repeat;
			if self.childsize
			{
				col += wi.logicrect.w - 1 >| 0;
				col |<= sizeof crs - 1;
			}
			local x = round(clw * crs[col] + clx);
			local w = round(x) - round(lastx);
			wi.rect.(x, y) = lastx, lasty;
			wi.rect.(w, h) = w, h;
			lastx = x;
		}
		lasty = y;
	}
}

// Place widgets in a grid, based on their logic sizes, and stretch the parent
// to fit all widgets.
// Parameters:
//	cols (real) [1]			number of columns
procedure align_stretch(self)
{
//print(self, ": ", self.logicrect.w, "x", self.logicrect.h, "\n");
	local clx, local cly = self.rect.(x, y) + self.border;
	local clw, local clh = 0;
	local widgets = self.widgets;
	local w = 0;
	local maxh = 0;
	local h0 = 0;
	local y0 = 0;
	local col = 0;
	for local i = 0, sizeof widgets - 1
	{
		local wg = widgets[i];
//print(self, ":    widget[", i, "]: ", wg.logicrect.w, "x", wg.logicrect.h, "\n");
		wg.rect.(x, y) = (w, y0) + (clx, cly);
		wg.rect.(w, h) = wg.logicrect.(w, h);
		w += wg.logicrect.w;
		maxh >|= wg.logicrect.h;
		col += 1;
		if (col >= self.cols) or (i == (sizeof widgets - 1))
		{
//print("row!\n");
			clw >|= w;
			clh += maxh;
			maxh = 0;
			y0 = clh;
			w = 0;
			col = 0;
		}
	}
	self:SetSize((clw, clh) + (2 * self.border));
	self.logicrect.(w, h) = (clw, clh) + (2 * self.border);
	self.rect = clone self.logicrect;
//print(self, ": final: ", self.logicrect.w, "x", self.logicrect.h, "\n");
}

// Place widgets in a dynamic grid, where the number of rows
// and columns is based on parameters as well as number of
// widgets.
//   'colrowratio' specifies the desired columns/rows ratio,
// determining how the children are to be arranged.
//   The 'colratio' and 'rowratio' vectors determine the
//  relative and/or absolute widths of columns and heights of
// rows, respectively. Negative values in one of these vectors
// are negated and used as absolute sizes in pixels. Positive
// values are interpreted as fractions of the total sum of
// positive values, specifying the width in relation to the
// remaining physical space in the container widget after any
// absolute size columns/rows have been placed.
//
// Parameters:
//	colrowratio (real) [1]		columns/rows ratio
//	colratio (vector_d) [<empty>]	col/col/... ratio
//	rowratio (vector_d) [<empty>]	row/row/... ratio
//	childsize (boolean) [false]	Calculate ratios from child rects
//
// NOTE:
//	When using childsize = true, widgets are considered even if invisible!
//	Invisible widgets will leave spaces in the grid.
//
procedure align_ratio(self)
{
	local widgets = self.widgets;

	// How many widgets are we dealing with?
	local wc = 0;
	if self.childsize
		// All of them!
		wc = sizeof widgets;
	else
		// Count visible widgets
		for local i = 0, sizeof widgets - 1
			wc += widgets[i].visible;
	if not wc
		return;		// No widgets to align!

	// Client area size
	local clw, local clh = self.rect.(w, h) - (2 * self.border);

	// Calculate row/column ratio
	local crr = self.colrowratio;
	if crr < 0
		crr = -crr * clw / (clh >| 1);
	local cols = floor(sqrt(wc * crr));
	cols = 1 >| cols |< wc;
	local rows = ceil(wc / cols);

	// Calculate or grab rowratio and colratio.
	local rr, local cr = self.(rowratio, colratio);
	if self.childsize
	{
		delete(rr);
		delete(cr);
		// Top row and left column widgets govern ratios.
		for local i = 0, cols - 1
		{
			if i >= sizeof widgets
			{
				// Fill with 1's if we run out of widgets...
				while sizeof cr < cols
					cr.+ 1;
				break;
			}
			cr.+ widgets[i].logicrect.w;
		}
		for local i = 0, rows - 1
		{
			local iv = i * cols;
			if iv >= sizeof widgets
			{
				while sizeof rr < cols
					rr.+ 1;
				break;
			}
			rr.+ widgets[iv].logicrect.h;
		}
	}

	// Calculate row distribution
	local rrs = vector [];
	local rrsum = 0;
	local arsum = 0;
	for local i = 0, rows - 1
	{
		if sizeof self.rowratio > i
			rrs.+ self.rowratio[i];
		else
			rrs.+ 1;
		if rrs[i] >= 0
			rrsum += rrs[i];
		else
			arsum -= rrs[i];
	}
	clh -= arsum;
	clh >|= 1;
	for local i = 0, rows - 1
		if rrs[i] >= 0
			rrs[i] /= rrsum;
		else
			rrs[i] = -rrs[i] / clh;
	if rows > 1
		for local i = 1, rows - 1
			rrs[i] += rrs[i - 1];

	// Calculate column distribution
	local crs = vector [];
	local crsum = 0;
	local acsum = 0;
	for local i = 0, cols - 1
	{
		if sizeof self.colratio > i
			crs.+ self.colratio[i];
		else
			crs.+ 1;
		if crs[i] >= 0
			crsum += crs[i];
		else
			acsum -= crs[i];
	}
	clw -= acsum;
	clw >|= 1;
	for local i = 0, cols - 1
		if crs[i] >= 0
			crs[i] /= crsum;
		else
			crs[i] = -crs[i] / clw;
	if cols > 1
		for local i = 1, cols - 1
			crs[i] += crs[i - 1];

	// Realign children
	local clx, local cly = self.rect.(x, y) + self.border;
	local i = 0;
	local lasty = cly;
	for local row = 0, rows - 1
	rowloop:
	{
		local y = round(clh * rrs[row] + cly);
		local h = y - lasty;
		local lastx = clx;
		for local col = 0, cols - 1
		{
			if i >= sizeof widgets
				break rowloop;
			local wi = widgets[i];
			i += 1;
			if not self.childsize and not wi.visible
				repeat;
			local x = round(clw * crs[col] + clx);
			local w = x - lastx;
			wi.rect.(x, y) = lastx, lasty;
			wi.rect.(w, h) = (w, h) >| 0;
			lastx = x;
		}
		lasty = y;
	}
}


function set_align(self, a)<params>
{
	self.reversealign = false;
	if typeof a == (function)
	{
		self.Align = a;
		return self;
	}
	switch a
	  case "none"
	  {
		if tuples
			throw "Aligner " + a + " does not accept"
					" any parameters!";
		self.Align = align_none;
	  }
	  case "relative"
	  {
		if tuples > 2
			throw "Aligner " + a + " has only 2 parameters!";
		self.Align = align_relative;
		self.xscroll = 0;
		if specified params[0]
			if params[0] != nil
				self.xscroll = params[0];
		self.yscroll = 0;
		if specified params[1]
			if params[1] != nil
				self.yscroll = params[1];
		self.extents = SDL.Rect [];
		self.SetScroll = procedure(ss, x, y)
		{
			local ra = false;
			if (x != nil) and (x != ss.xscroll)
				ss.xscroll, ra = x, true;
			if (y != nil) and (y != ss.yscroll)
				ss.yscroll, ra = y, true;
			if ra
				ss:Realign();
		};
		self.SetScrollPos = procedure(ss, x, y)
		{
			local xt = ss.extents;
			local xs, local ys = nil;
			if (x != nil) and (xt.w > ss.rect.w)
				xs = -(x * (xt.w - ss.rect.w) + xt.x);
			if (y != nil) and (xt.h > ss.rect.h)
				ys = -((1 - y) * (xt.h - ss.rect.h) + xt.y);
			ss:SetScroll(xs, ys);
		};
	  }
	  case "list"
	  {
		if tuples > 2
			throw "Aligner " + a + " has only 2 parameters!";
		self.Align = align_list;
		self.itemheight = 16;
		if specified params[0]
			if params[0] != nil
				self.itemheight = params[0];
		self.yscroll = 0;
		if specified params[1]
			if params[1] != nil
				self.yscroll = params[1];
		self.ymax = 0;
		self.SetScroll = procedure(ss, y)
		{
			local ra = false;
			if (y != nil) and (y != ss.yscroll)
				ss.yscroll, ra = y, true;
			if ra
				ss:Realign();
		};
		self.SetScrollPos = procedure(ss, y)
		{
			local ys = nil;
			if (y != nil) and (ss.ymax > ss.rect.h)
				ys = -((1 - y) * (ss.ymax - ss.rect.h));
			ss:SetScroll(ys);
		};
	  }
	  case "scale"
	  {
		if tuples > 2
			throw "Aligner " + a + " has only 2 parameters!";
		self.Align = align_scale;
		self.logicw = 100;
		if specified params[0]
			if params[0] != nil
				self.logicw = params[0];
		self.logich = 100;
		if specified params[1]
			if params[1] != nil
				self.logich = params[1];
	  }
	  case "grid"
	  {
		if tuples > 5
			throw "Aligner " + a + " has only 5 parameters!";
		self.Align = align_grid;
		self.cols = 100;
		if specified params[0]
			if params[0] != nil
				self.cols = params[0];
		self.rows = 100;
		if specified params[1]
			if params[1] != nil
				self.rows = params[1];
		self.colratio = vector [];
		self.rowratio = vector [];
		if specified params[2]
			if params[2] != nil
				self.colratio = params[2];
		if specified params[3]
			if params[3] != nil
				self.rowratio = params[3];
		self.childsize = false;
		if specified params[4]
			if params[4] != nil
				self.childsize = params[4];
	  }
	  case "stretch"
	  {
		if tuples > 1
			throw "Aligner " + a + " has only 1 parameter!";
		if self.parent
			print("Eelium GUI WARNING: Aligner \"stretch\" will "
					"not work properly with "
					"non-root widgets!\n");
		self.Align = align_stretch;
		self.cols = 1;
		if specified params[0]
			if params[0] != nil
				self.cols = params[0];
	  }
	  case "ratio", nil, 0
	  {
		if tuples > 4
			throw "Aligner " + a + " has only 4 parameters!";
		self.Align = align_ratio;
		self.colrowratio = 1;
		if specified params[0]
			if params[0] != nil
				self.colrowratio = params[0];
		self.colratio = vector [];
		if specified params[1]
			if params[1] != nil
				self.colratio = params[1];
		self.rowratio = vector [];
		if specified params[2]
			if params[2] != nil
				self.rowratio = params[2];
		self.childsize = false;
		if specified params[3]
			if params[3] != nil
				self.childsize = params[3];
	  }
	  default
		throw "Unknown alignment method!";
	self:Realign();
	return self;
}



///////////////////////////////////////////////////////////////////////////////
///////////////////////////////////////////////////////////////////////////////
//// Widget base constructor
///////////////////////////////////////////////////////////////////////////////
///////////////////////////////////////////////////////////////////////////////

export function Widget(parent)[rect]
{
	local no = {
		// Various flags
		.enabled		true,	// Accepts user interaction
		.visible		true,
		.needs_realign		true,

		// Border around the client area
		.border			0,

		// Child widgets
		.widgets		array [],

		// Hooks
		//procedure DeleteHook(self)	{},
		.DeleteHook		nil,

		// Recursively destroy widget and children.
		procedure Delete(self)
		{
			if self.DeleteHook
				self:DeleteHook();
			if modal == self
				SetModal(nil);
			if captured == self
				SetCapture(nil);
			if focused == self
				SetFocus(nil);
			if self.parent
			{
				local wa = self.parent.widgets;
				if sizeof wa
					for local i = 0, sizeof wa - 1
						if wa[i] == self
						{
							delete(wa, i);
							break;
						}
//				self.parent:Invalidate();
//				self.parent:Realign();
//????????????????????????????